[General]
network = Scenario
sim-time-limit = 80s
debug-on-errors = true
cmdenv-express-mode = true
image-path = ../../../../images

# Configuración de las aplicaciones VeinsInetSampleApplication
*.node[*].numApps = 1
*.node[*].app[0].typename = "vanetquevedo.veins_inet.VeinsInetSampleApplication"
*.node[*].app[0].interface = "wlan0"

# Configuración de la interfaz IEEE 802.11p
*.node[*].wlan[0].opMode = "p"
*.node[*].wlan[0].radio.typename = "Ieee80211DimensionalRadio"
*.node[*].wlan[0].radio.bandName = "5.9 GHz"
*.node[*].wlan[0].radio.channelNumber = 3
*.node[*].wlan[0].radio.transmitter.power = 20mW
*.node[*].wlan[0].radio.bandwidth = 10 MHz

# Configuraciones de movilidad
*.node[*].wlan[*].radio.antenna.mobility.typename = "AttachedMobility"
*.node[*].wlan[*].radio.antenna.mobility.mobilityModule = "^.^.^.^.mobility"
*.node[*].wlan[*].radio.antenna.mobility.offsetX = -2.5m
*.node[*].wlan[*].radio.antenna.mobility.offsetZ = 1.5m
*.node[*].wlan[*].radio.antenna.mobility.constraintAreaMinX = 0m
*.node[*].wlan[*].radio.antenna.mobility.constraintAreaMaxX = 0m
*.node[*].wlan[*].radio.antenna.mobility.constraintAreaMinY = 0m
*.node[*].wlan[*].radio.antenna.mobility.constraintAreaMaxY = 0m
*.node[*].wlan[*].radio.antenna.mobility.constraintAreaMinZ = 0m
*.node[*].wlan[*].radio.antenna.mobility.constraintAreaMaxZ = 0m

# Configuración de la capa de red y AODV
*.node[*].ipv4.routingTableModule = "inet.routing.dymo.DymoRouting"


# Configuración de la capa de red y recolección de datos
*.node[*].ipv4.configurator.typename = "HostAutoConfigurator"
*.node[*].ipv4.configurator.interfaces = "wlan0"
*.node[*].ipv4.configurator.mcastGroups = "224.0.0.1"

*.node[*].mobility.typename = "VeinsInetMobility"
*.manager.updateInterval = 0.1s
*.manager.host = "localhost"
*.manager.port = 9999
*.manager.autoShutdown = true
*.manager.launchConfig = xmldoc("centerquevedo.launchd.xml")
*.manager.moduleType = "vanetquevedo.veins_inet.VeinsInetCar"


# Habilitando la grabación de vectores para análisis posterior
**.vector-recording = true
**.scalar-recording = true