<?xml version="1.0" encoding="UTF-8"?>

<!-- generated on 01/09/24 01:05:46 by Eclipse SUMO netconvert Version 1.8.0
<configuration xmlns:xsi="http://www.w3.org/2001/XMLSchema-instance" xsi:noNamespaceSchemaLocation="http://sumo.dlr.de/xsd/netconvertConfiguration.xsd">

    <input>
        <osm-files value="mapcenterquevedo.osm"/>
    </input>

    <output>
        <output-file value="centerquevedo.net.xml"/>
    </output>

    <projection>
        <proj.utm value="true"/>
    </projection>

    <processing>
        <geometry.remove value="true"/>
        <roundabouts.guess value="true"/>
    </processing>

    <tls_building>
        <tls.discard-simple value="true"/>
        <tls.join value="true"/>
        <tls.guess-signals value="true"/>
    </tls_building>

    <ramp_guessing>
        <ramps.guess value="true"/>
    </ramp_guessing>

    <junctions>
        <junctions.join value="true"/>
    </junctions>

    <report>
        <aggregate-warnings value="5"/>
    </report>

</configuration>
-->

<net version="1.6" junctionCornerDetail="5" limitTurnSpeed="5.50" xmlns:xsi="http://www.w3.org/2001/XMLSchema-instance" xsi:noNamespaceSchemaLocation="http://sumo.dlr.de/xsd/net_file.xsd">

    <location netOffset="-670294.72,113593.61" convBoundary="0.00,0.00,501.74,581.04" origBoundary="-79.469544,-1.027345,-79.465037,-1.022090" projParameter="+proj=utm +zone=17 +ellps=WGS84 +datum=WGS84 +units=m +no_defs"/>

    <type id="highway.bridleway" priority="1" numLanes="1" speed="2.78" allow="pedestrian" oneway="1" width="2.00"/>
    <type id="highway.bus_guideway" priority="1" numLanes="1" speed="27.78" allow="bus" oneway="1"/>
    <type id="highway.cycleway" priority="1" numLanes="1" speed="8.33" allow="bicycle" oneway="0" width="1.00"/>
    <type id="highway.footway" priority="1" numLanes="1" speed="2.78" allow="pedestrian" oneway="1" width="2.00"/>
    <type id="highway.ford" priority="1" numLanes="1" speed="2.78" allow="army" oneway="0"/>
    <type id="highway.living_street" priority="2" numLanes="1" speed="2.78" disallow="tram rail_urban rail rail_electric rail_fast ship" oneway="0"/>
    <type id="highway.motorway" priority="14" numLanes="2" speed="39.44" allow="private emergency authority army vip passenger hov taxi bus coach delivery truck trailer motorcycle evehicle custom1 custom2" oneway="1"/>
    <type id="highway.motorway_link" priority="9" numLanes="1" speed="22.22" allow="private emergency authority army vip passenger hov taxi bus coach delivery truck trailer motorcycle evehicle custom1 custom2" oneway="1"/>
    <type id="highway.path" priority="1" numLanes="1" speed="2.78" allow="pedestrian bicycle" oneway="0" width="2.00"/>
    <type id="highway.pedestrian" priority="1" numLanes="1" speed="2.78" allow="pedestrian" oneway="1" width="2.00"/>
    <type id="highway.primary" priority="12" numLanes="2" speed="27.78" disallow="tram rail_urban rail rail_electric rail_fast ship" oneway="0"/>
    <type id="highway.primary_link" priority="7" numLanes="1" speed="22.22" disallow="tram rail_urban rail rail_electric rail_fast ship" oneway="0"/>
    <type id="highway.raceway" priority="15" numLanes="2" speed="83.33" allow="vip" oneway="0"/>
    <type id="highway.residential" priority="3" numLanes="1" speed="13.89" disallow="tram rail_urban rail rail_electric rail_fast ship" oneway="0"/>
    <type id="highway.secondary" priority="11" numLanes="1" speed="27.78" disallow="tram rail_urban rail rail_electric rail_fast ship" oneway="0"/>
    <type id="highway.secondary_link" priority="6" numLanes="1" speed="22.22" disallow="tram rail_urban rail rail_electric rail_fast ship" oneway="0"/>
    <type id="highway.service" priority="1" numLanes="1" speed="5.56" allow="pedestrian delivery bicycle" oneway="0"/>
    <type id="highway.stairs" priority="1" numLanes="1" speed="1.39" allow="pedestrian" oneway="1" width="2.00"/>
    <type id="highway.step" priority="1" numLanes="1" speed="1.39" allow="pedestrian" oneway="1" width="2.00"/>
    <type id="highway.steps" priority="1" numLanes="1" speed="1.39" allow="pedestrian" oneway="1" width="2.00"/>
    <type id="highway.tertiary" priority="10" numLanes="1" speed="22.22" disallow="tram rail_urban rail rail_electric rail_fast ship" oneway="0"/>
    <type id="highway.tertiary_link" priority="5" numLanes="1" speed="22.22" disallow="tram rail_urban rail rail_electric rail_fast ship" oneway="0"/>
    <type id="highway.track" priority="1" numLanes="1" speed="5.56" allow="pedestrian motorcycle moped bicycle" oneway="0"/>
    <type id="highway.trunk" priority="13" numLanes="2" speed="27.78" disallow="pedestrian bicycle tram rail_urban rail rail_electric rail_fast ship" oneway="0"/>
    <type id="highway.trunk_link" priority="8" numLanes="1" speed="22.22" disallow="pedestrian bicycle tram rail_urban rail rail_electric rail_fast ship" oneway="0"/>
    <type id="highway.unclassified" priority="4" numLanes="1" speed="13.89" disallow="tram rail_urban rail rail_electric rail_fast ship" oneway="0"/>
    <type id="highway.unsurfaced" priority="1" numLanes="1" speed="8.33" disallow="tram rail_urban rail rail_electric rail_fast ship" oneway="0"/>
    <type id="railway.highspeed" priority="21" numLanes="1" speed="69.44" allow="rail_fast" oneway="1"/>
    <type id="railway.light_rail" priority="19" numLanes="1" speed="27.78" allow="rail_urban" oneway="1"/>
    <type id="railway.preserved" priority="16" numLanes="1" speed="27.78" allow="rail" oneway="1"/>
    <type id="railway.rail" priority="20" numLanes="1" speed="44.44" allow="rail" oneway="1"/>
    <type id="railway.subway" priority="18" numLanes="1" speed="27.78" allow="rail_urban" oneway="1"/>
    <type id="railway.tram" priority="17" numLanes="1" speed="13.89" allow="tram" oneway="1"/>

    <edge id=":10946353563_0" function="internal">
        <lane id=":10946353563_0_0" index="0" disallow="tram rail_urban rail rail_electric rail_fast ship" speed="13.89" length="8.06" shape="455.67,335.10 453.84,327.25"/>
        <lane id=":10946353563_0_1" index="1" disallow="tram rail_urban rail rail_electric rail_fast ship" speed="13.89" length="8.06" shape="458.79,334.37 456.96,326.52"/>
    </edge>
    <edge id=":10946353563_2" function="internal">
        <lane id=":10946353563_2_0" index="0" disallow="tram rail_urban rail rail_electric rail_fast ship" speed="5.83" length="6.76" shape="449.17,331.30 451.43,330.47 452.97,329.52 453.77,328.45 453.84,327.25"/>
    </edge>
    <edge id=":10958216671_0" function="internal">
        <lane id=":10958216671_0_0" index="0" disallow="tram rail_urban rail rail_electric rail_fast ship" speed="3.65" length="4.67" shape="458.31,167.05 459.45,167.93 459.80,168.75 459.35,169.52 458.09,170.24"/>
    </edge>
    <edge id=":10994322863_0" function="internal">
        <lane id=":10994322863_0_0" index="0" allow="pedestrian delivery bicycle" speed="7.80" length="7.96" shape="471.11,320.62 469.16,322.61 467.84,324.37 467.16,325.90 467.10,327.20"/>
    </edge>
    <edge id=":10994322863_1" function="internal">
        <lane id=":10994322863_1_0" index="0" allow="pedestrian delivery bicycle" speed="3.65" length="4.67" shape="471.11,320.62 469.69,320.85 468.85,320.54 468.60,319.68 468.93,318.28"/>
    </edge>
    <edge id=":10994322863_2" function="internal">
        <lane id=":10994322863_2_0" index="0" allow="pedestrian delivery bicycle" speed="4.68" length="5.85" shape="464.86,317.01 465.46,318.66 466.34,319.43 467.49,319.30 468.93,318.28"/>
    </edge>
    <edge id=":10994322863_3" function="internal">
        <lane id=":10994322863_3_0" index="0" disallow="tram rail_urban rail rail_electric rail_fast ship" speed="11.11" length="10.43" shape="464.86,317.01 467.10,327.20"/>
        <lane id=":10994322863_3_1" index="1" disallow="tram rail_urban rail rail_electric rail_fast ship" speed="11.11" length="10.43" shape="461.73,317.70 463.97,327.88"/>
    </edge>
    <edge id=":1237146474_0" function="internal">
        <lane id=":1237146474_0_0" index="0" disallow="tram rail_urban rail rail_electric rail_fast ship" speed="3.65" length="4.67" shape="3.90,172.17 4.01,170.73 4.52,169.99 5.41,169.95 6.69,170.61"/>
    </edge>
    <edge id=":1237146474_1" function="internal">
        <lane id=":1237146474_1_0" index="0" disallow="tram rail_urban rail rail_electric rail_fast ship" speed="6.23" length="9.05" shape="9.30,163.40 7.10,164.64 5.93,166.26 5.79,168.25 6.69,170.61"/>
    </edge>
    <edge id=":1237146856_0" function="internal">
        <lane id=":1237146856_0_0" index="0" disallow="tram rail_urban rail rail_electric rail_fast ship" speed="16.67" length="10.62" shape="390.72,283.77 393.87,293.75"/>
        <lane id=":1237146856_0_1" index="1" disallow="tram rail_urban rail rail_electric rail_fast ship" speed="16.67" length="10.62" shape="387.64,284.66 390.85,294.79"/>
        <lane id=":1237146856_0_2" index="2" disallow="tram rail_urban rail rail_electric rail_fast ship" speed="16.67" length="10.62" shape="384.57,285.56 387.82,295.82"/>
    </edge>
    <edge id=":1237146856_3" function="internal">
        <lane id=":1237146856_3_0" index="0" disallow="tram rail_urban rail rail_electric rail_fast ship" speed="7.36" length="11.41" shape="380.89,292.27 384.62,291.53 387.52,291.70 389.59,292.79 390.85,294.79"/>
    </edge>
    <edge id=":1237146856_4" function="internal">
        <lane id=":1237146856_4_0" index="0" disallow="tram rail_urban rail rail_electric rail_fast ship" speed="6.53" length="8.79" shape="380.89,292.27 383.27,291.93 385.22,292.41 386.74,293.70 387.82,295.82"/>
    </edge>
    <edge id=":1237147045_0" function="internal">
        <lane id=":1237147045_0_0" index="0" disallow="tram rail_urban rail rail_electric rail_fast ship" speed="6.89" length="9.55" shape="435.75,415.68 436.94,418.09 438.56,419.63 440.61,420.28 443.08,420.06"/>
    </edge>
    <edge id=":1237147045_1" function="internal">
        <lane id=":1237147045_1_0" index="0" disallow="tram rail_urban rail rail_electric rail_fast ship" speed="16.67" length="14.41" shape="435.75,415.68 440.17,429.56"/>
        <lane id=":1237147045_1_1" index="1" disallow="tram rail_urban rail rail_electric rail_fast ship" speed="16.67" length="14.41" shape="432.72,416.72 437.10,430.45"/>
        <lane id=":1237147045_1_2" index="2" disallow="tram rail_urban rail rail_electric rail_fast ship" speed="16.67" length="14.41" shape="429.70,417.77 434.03,431.35"/>
    </edge>
    <edge id=":1237147045_4" function="internal">
        <lane id=":1237147045_4_0" index="0" disallow="tram rail_urban rail rail_electric rail_fast ship" speed="11.11" length="17.40" shape="426.19,424.15 443.08,420.06"/>
        <lane id=":1237147045_4_1" index="1" disallow="tram rail_urban rail rail_electric rail_fast ship" speed="11.11" length="17.40" shape="426.92,427.26 443.85,423.16"/>
    </edge>
    <edge id=":1237147045_6" function="internal">
        <lane id=":1237147045_6_0" index="0" disallow="tram rail_urban rail rail_electric rail_fast ship" speed="7.50" length="11.85" shape="426.92,427.26 430.80,426.69 433.79,427.03 435.89,428.29 437.10,430.45"/>
    </edge>
    <edge id=":1237147045_7" function="internal">
        <lane id=":1237147045_7_0" index="0" disallow="tram rail_urban rail rail_electric rail_fast ship" speed="6.70" length="9.24" shape="426.92,427.26 429.44,427.02 431.46,427.63 432.99,429.07 434.03,431.35"/>
    </edge>
    <edge id=":1237147089_0" function="internal">
        <lane id=":1237147089_0_0" index="0" disallow="tram rail_urban rail rail_electric rail_fast ship" speed="6.94" length="17.65" shape="72.80,296.78 63.04,282.07"/>
    </edge>
    <edge id=":1237147089_1" function="internal">
        <lane id=":1237147089_1_0" index="0" disallow="tram rail_urban rail rail_electric rail_fast ship" speed="9.72" length="16.48" shape="72.80,296.78 70.91,292.36 70.30,288.31 70.98,284.64 72.94,281.33"/>
    </edge>
    <edge id=":1237147089_2" function="internal">
        <lane id=":1237147089_2_0" index="0" disallow="tram rail_urban rail rail_electric rail_fast ship" speed="11.11" length="17.41" shape="76.57,292.28 71.40,290.15 67.67,287.81 65.01,285.15 63.04,282.07"/>
    </edge>
    <edge id=":1237147089_3" function="internal">
        <lane id=":1237147089_3_0" index="0" disallow="tram rail_urban rail rail_electric rail_fast ship" speed="6.47" length="7.91" shape="77.59,289.24 74.02,287.63 72.05,285.77 71.83,284.50"/>
    </edge>
    <edge id=":1237147089_6" function="internal">
        <lane id=":1237147089_6_0" index="0" disallow="tram rail_urban rail rail_electric rail_fast ship" speed="6.47" length="3.49" shape="71.83,284.50 71.69,283.67 72.94,281.33"/>
    </edge>
    <edge id=":1237147089_4" function="internal">
        <lane id=":1237147089_4_0" index="0" disallow="tram rail_urban rail rail_electric rail_fast ship" speed="5.82" length="9.13" shape="65.88,280.58 67.43,282.75 69.13,283.60 70.97,283.13 72.94,281.33"/>
    </edge>
    <edge id=":1237147089_5" function="internal">
        <lane id=":1237147089_5_0" index="0" disallow="tram rail_urban rail rail_electric rail_fast ship" speed="3.65" length="2.18" shape="65.88,280.58 65.73,282.02 65.29,282.62"/>
    </edge>
    <edge id=":1237147089_7" function="internal">
        <lane id=":1237147089_7_0" index="0" disallow="tram rail_urban rail rail_electric rail_fast ship" speed="3.65" length="2.49" shape="65.29,282.62 65.20,282.74 64.31,282.76 63.04,282.07"/>
    </edge>
    <edge id=":1237147194_0" function="internal">
        <lane id=":1237147194_0_0" index="0" disallow="tram rail_urban rail rail_electric rail_fast ship" speed="13.89" length="14.44" shape="385.17,527.38 380.68,513.63"/>
        <lane id=":1237147194_0_1" index="1" disallow="tram rail_urban rail rail_electric rail_fast ship" speed="13.89" length="14.44" shape="388.21,526.37 383.73,512.65"/>
        <lane id=":1237147194_0_2" index="2" disallow="tram rail_urban rail rail_electric rail_fast ship" speed="13.89" length="14.44" shape="391.25,525.37 386.77,511.67"/>
    </edge>
    <edge id=":1237147194_3" function="internal">
        <lane id=":1237147194_3_0" index="0" disallow="tram rail_urban rail rail_electric rail_fast ship" speed="7.97" length="14.25" shape="394.86,518.24 391.01,518.96 387.87,518.27 385.45,516.17 383.73,512.65"/>
    </edge>
    <edge id=":1237147194_4" function="internal">
        <lane id=":1237147194_4_0" index="0" disallow="tram rail_urban rail rail_electric rail_fast ship" speed="6.47" length="9.03" shape="393.83,515.21 391.39,515.67 389.40,515.23 387.86,513.90 386.77,511.67"/>
    </edge>
    <edge id=":1237148541_0" function="internal">
        <lane id=":1237148541_0_0" index="0" disallow="tram rail_urban rail rail_electric rail_fast ship" speed="6.94" length="12.58" shape="219.41,405.23 217.08,402.79 215.27,400.47 213.41,398.22 210.92,395.98"/>
    </edge>
    <edge id=":1237148541_1" function="internal">
        <lane id=":1237148541_1_0" index="0" disallow="tram rail_urban rail rail_electric rail_fast ship" speed="3.65" length="4.67" shape="219.41,405.23 219.06,403.83 219.29,402.97 220.13,402.64 221.55,402.85"/>
    </edge>
    <edge id=":1237148541_2" function="internal">
        <lane id=":1237148541_2_0" index="0" disallow="tram rail_urban rail rail_electric rail_fast ship" speed="5.67" length="9.24" shape="222.96,396.22 220.47,397.42 219.40,398.93 219.76,400.74 221.55,402.85"/>
    </edge>
    <edge id=":1237148541_3" function="internal">
        <lane id=":1237148541_3_0" index="0" disallow="tram rail_urban rail rail_electric rail_fast ship" speed="6.94" length="12.47" shape="222.96,396.22 219.14,397.21 215.86,397.50 213.12,397.09 210.92,395.98"/>
    </edge>
    <edge id=":1237150092_0" function="internal">
        <lane id=":1237150092_0_0" index="0" disallow="tram rail_urban rail rail_electric rail_fast ship" speed="5.56" length="9.87" shape="184.83,344.68 186.23,347.35 187.94,349.06 189.94,349.80 192.23,349.57"/>
    </edge>
    <edge id=":1237150092_1" function="internal">
        <lane id=":1237150092_1_0" index="0" disallow="tram rail_urban rail rail_electric rail_fast ship" speed="5.56" length="11.10" shape="184.83,344.68 185.89,348.22 185.98,351.03 185.09,353.12 183.21,354.48"/>
    </edge>
    <edge id=":1237150092_2" function="internal">
        <lane id=":1237150092_2_0" index="0" disallow="tram rail_urban rail rail_electric rail_fast ship" speed="5.56" length="10.49" shape="181.97,351.53 184.84,350.60 187.02,350.35 189.25,350.20 192.23,349.57"/>
    </edge>
    <edge id=":1237150092_3" function="internal">
        <lane id=":1237150092_3_0" index="0" disallow="tram rail_urban rail rail_electric rail_fast ship" speed="3.65" length="4.67" shape="181.97,351.53 183.38,351.80 184.06,352.38 184.01,353.28 183.21,354.48"/>
    </edge>
    <edge id=":1788098343_0" function="internal">
        <lane id=":1788098343_0_0" index="0" disallow="tram rail_urban rail rail_electric rail_fast ship" speed="6.55" length="9.16" shape="312.06,42.90 309.87,44.05 308.58,45.65 308.19,47.70 308.70,50.20"/>
    </edge>
    <edge id=":1788098343_1" function="internal">
        <lane id=":1788098343_1_0" index="0" disallow="tram rail_urban rail rail_electric rail_fast ship" speed="8.04" length="14.32" shape="311.00,39.88 307.56,41.69 305.52,44.19 304.90,47.38 305.68,51.26"/>
    </edge>
    <edge id=":1788098343_2" function="internal">
        <lane id=":1788098343_2_0" index="0" disallow="tram rail_urban rail rail_electric rail_fast ship" speed="8.70" length="16.97" shape="311.00,39.88 306.23,42.16 303.26,44.99 302.07,48.38 302.66,52.32"/>
    </edge>
    <edge id=":1788098343_3" function="internal">
        <lane id=":1788098343_3_0" index="0" disallow="tram rail_urban rail rail_electric rail_fast ship" speed="11.11" length="18.34" shape="311.00,39.88 306.18,42.12 303.22,44.36 300.28,46.66 295.52,49.05"/>
        <lane id=":1788098343_3_1" index="1" disallow="tram rail_urban rail rail_electric rail_fast ship" speed="11.11" length="18.34" shape="311.00,39.88 294.35,46.07"/>
        <lane id=":1788098343_3_2" index="2" disallow="tram rail_urban rail rail_electric rail_fast ship" speed="11.11" length="18.34" shape="311.00,39.88 305.80,41.19 302.06,41.38 298.33,41.62 293.19,43.08"/>
        <lane id=":1788098343_3_3" index="3" disallow="tram rail_urban rail rail_electric rail_fast ship" speed="11.11" length="18.34" shape="311.00,39.88 305.50,40.76 301.47,39.88 297.46,39.06 292.03,40.10"/>
    </edge>
    <edge id=":1788098343_7" function="internal">
        <lane id=":1788098343_7_0" index="0" disallow="tram rail_urban rail rail_electric rail_fast ship" speed="3.65" length="4.67" shape="311.00,39.88 309.60,39.53 308.96,38.90 309.07,38.02 309.93,36.86"/>
    </edge>
    <edge id=":1788098345_0" function="internal">
        <lane id=":1788098345_0_0" index="0" disallow="tram rail_urban rail rail_electric rail_fast ship" speed="6.53" length="8.22" shape="495.64,544.95 497.58,543.87 498.80,542.42 499.29,540.59 499.06,538.39"/>
    </edge>
    <edge id=":1788098345_1" function="internal">
        <lane id=":1788098345_1_0" index="0" disallow="tram rail_urban rail rail_electric rail_fast ship" speed="7.37" length="10.71" shape="495.64,544.95 498.90,543.39 501.08,541.65 502.17,539.73 502.17,537.63"/>
    </edge>
    <edge id=":1788098357_0" function="internal">
        <lane id=":1788098357_0_0" index="0" disallow="tram rail_urban rail rail_electric rail_fast ship" speed="6.49" length="9.00" shape="230.46,80.43 229.28,78.24 227.69,76.95 225.71,76.56 223.32,77.07"/>
    </edge>
    <edge id=":1788098357_1" function="internal">
        <lane id=":1788098357_1_0" index="0" disallow="tram rail_urban rail rail_electric rail_fast ship" speed="8.00" length="14.23" shape="233.48,79.39 231.62,75.92 229.12,73.88 225.98,73.26 222.20,74.07"/>
    </edge>
    <edge id=":1788098357_2" function="internal">
        <lane id=":1788098357_2_0" index="0" disallow="tram rail_urban rail rail_electric rail_fast ship" speed="9.27" length="19.46" shape="236.51,78.36 233.96,73.61 230.54,70.81 226.25,69.96 221.09,71.07"/>
    </edge>
    <edge id=":1788098357_3" function="internal">
        <lane id=":1788098357_3_0" index="0" disallow="tram rail_urban rail rail_electric rail_fast ship" speed="11.11" length="17.51" shape="239.75,70.81 223.32,77.07"/>
        <lane id=":1788098357_3_1" index="1" disallow="tram rail_urban rail rail_electric rail_fast ship" speed="11.11" length="17.51" shape="238.59,67.83 222.20,74.07"/>
        <lane id=":1788098357_3_2" index="2" disallow="tram rail_urban rail rail_electric rail_fast ship" speed="11.11" length="17.51" shape="237.42,64.85 221.09,71.07"/>
        <lane id=":1788098357_3_3" index="3" disallow="tram rail_urban rail rail_electric rail_fast ship" speed="11.11" length="17.51" shape="236.26,61.87 219.97,68.08"/>
    </edge>
    <edge id=":1788098370_0" function="internal">
        <lane id=":1788098370_0_0" index="0" disallow="tram rail_urban rail rail_electric rail_fast ship" speed="3.85" length="5.45" shape="414.76,335.71 416.71,340.80"/>
    </edge>
    <edge id=":1788098370_1" function="internal">
        <lane id=":1788098370_1_0" index="0" disallow="tram rail_urban rail rail_electric rail_fast ship" speed="7.82" length="13.93" shape="414.76,335.71 412.38,337.14 411.19,339.65 411.19,343.22 412.38,347.87"/>
    </edge>
    <edge id=":1788098370_2" function="internal">
        <lane id=":1788098370_2_0" index="0" disallow="tram rail_urban rail rail_electric rail_fast ship" speed="8.33" length="18.40" shape="414.76,335.71 410.80,337.30 406.37,339.48 401.94,341.63 397.95,343.13"/>
    </edge>
    <edge id=":1788098370_3" function="internal">
        <lane id=":1788098370_3_0" index="0" disallow="tram rail_urban rail rail_electric rail_fast ship" speed="8.12" length="14.16" shape="407.08,332.44 408.99,336.77 411.23,339.61 413.80,340.95 416.71,340.80"/>
    </edge>
    <edge id=":1788098370_4" function="internal">
        <lane id=":1788098370_4_0" index="0" disallow="tram rail_urban rail rail_electric rail_fast ship" speed="16.67" length="16.32" shape="407.08,332.44 412.38,347.87"/>
        <lane id=":1788098370_4_1" index="1" disallow="tram rail_urban rail rail_electric rail_fast ship" speed="16.67" length="16.32" shape="404.06,333.48 409.35,348.91"/>
        <lane id=":1788098370_4_2" index="2" disallow="tram rail_urban rail rail_electric rail_fast ship" speed="16.67" length="16.32" shape="401.03,334.51 406.33,349.95"/>
    </edge>
    <edge id=":1788098370_7" function="internal">
        <lane id=":1788098370_7_0" index="0" disallow="tram rail_urban rail rail_electric rail_fast ship" speed="6.82" length="10.53" shape="401.03,334.51 401.75,337.73 401.48,340.24 400.21,342.04 397.95,343.13"/>
    </edge>
    <edge id=":1788098378_0" function="internal">
        <lane id=":1788098378_0_0" index="0" disallow="tram rail_urban rail rail_electric rail_fast ship" speed="5.56" length="10.13" shape="170.09,363.99 167.84,362.03 166.24,360.71 164.55,359.51 162.02,357.91"/>
    </edge>
    <edge id=":1788098378_1" function="internal">
        <lane id=":1788098378_1_0" index="0" disallow="tram rail_urban rail rail_electric rail_fast ship" speed="5.56" length="9.35" shape="170.09,363.99 167.89,361.67 167.07,359.69 167.61,358.07 169.52,356.80"/>
    </edge>
    <edge id=":1788098378_2" function="internal">
        <lane id=":1788098378_2_0" index="0" disallow="tram rail_urban rail rail_electric rail_fast ship" speed="5.56" length="9.25" shape="170.77,359.74 168.94,360.17 166.87,360.01 164.56,359.25 162.02,357.91"/>
    </edge>
    <edge id=":1788098378_3" function="internal">
        <lane id=":1788098378_3_0" index="0" disallow="tram rail_urban rail rail_electric rail_fast ship" speed="3.65" length="4.67" shape="170.77,359.74 169.35,359.47 168.67,358.89 168.73,358.00 169.52,356.80"/>
    </edge>
    <edge id=":1788098386_0" function="internal">
        <lane id=":1788098386_0_0" index="0" disallow="tram rail_urban rail rail_electric rail_fast ship" speed="5.71" length="7.04" shape="453.79,327.05 453.16,325.88 451.92,325.28 450.08,325.25 447.65,325.79"/>
    </edge>
    <edge id=":1788098386_1" function="internal">
        <lane id=":1788098386_1_0" index="0" disallow="tram rail_urban rail rail_electric rail_fast ship" speed="13.89" length="8.49" shape="453.79,327.05 451.86,318.78"/>
        <lane id=":1788098386_1_1" index="1" disallow="tram rail_urban rail rail_electric rail_fast ship" speed="13.89" length="8.49" shape="456.91,326.33 454.98,318.06"/>
    </edge>
    <edge id=":1788098393_0" function="internal">
        <lane id=":1788098393_0_0" index="0" disallow="tram rail_urban rail rail_electric rail_fast ship" speed="6.51" length="8.85" shape="384.25,262.64 385.36,264.79 386.89,266.08 388.85,266.53 391.24,266.13"/>
    </edge>
    <edge id=":1788098393_1" function="internal">
        <lane id=":1788098393_1_0" index="0" disallow="tram rail_urban rail rail_electric rail_fast ship" speed="16.67" length="10.72" shape="384.25,262.64 387.57,273.01"/>
        <lane id=":1788098393_1_1" index="1" disallow="tram rail_urban rail rail_electric rail_fast ship" speed="16.67" length="10.72" shape="381.23,263.70 384.50,273.91"/>
        <lane id=":1788098393_1_2" index="2" disallow="tram rail_urban rail rail_electric rail_fast ship" speed="16.67" length="10.72" shape="378.21,264.75 381.43,274.81"/>
    </edge>
    <edge id=":1788098394_0" function="internal">
        <lane id=":1788098394_0_0" index="0" disallow="tram rail_urban rail rail_electric rail_fast ship" speed="8.33" length="8.09" shape="31.77,222.53 27.94,215.41"/>
    </edge>
    <edge id=":1788098394_1" function="internal">
        <lane id=":1788098394_1_0" index="0" disallow="tram rail_urban rail rail_electric rail_fast ship" speed="3.65" length="2.34" shape="31.77,222.53 31.92,221.09 32.44,220.37"/>
    </edge>
    <edge id=":1788098394_4" function="internal">
        <lane id=":1788098394_4_0" index="0" disallow="tram rail_urban rail rail_electric rail_fast ship" speed="3.65" length="2.34" shape="32.44,220.37 33.34,220.35 34.60,221.04"/>
    </edge>
    <edge id=":1788098394_2" function="internal">
        <lane id=":1788098394_2_0" index="0" disallow="tram rail_urban rail rail_electric rail_fast ship" speed="8.33" length="8.16" shape="30.73,213.85 34.60,221.04"/>
    </edge>
    <edge id=":1788098394_3" function="internal">
        <lane id=":1788098394_3_0" index="0" disallow="tram rail_urban rail rail_electric rail_fast ship" speed="3.65" length="2.34" shape="30.73,213.85 30.62,215.29 30.11,216.03"/>
    </edge>
    <edge id=":1788098394_5" function="internal">
        <lane id=":1788098394_5_0" index="0" disallow="tram rail_urban rail rail_electric rail_fast ship" speed="3.65" length="2.34" shape="30.11,216.03 29.22,216.07 27.94,215.41"/>
    </edge>
    <edge id=":1788098408_0" function="internal">
        <lane id=":1788098408_0_0" index="0" disallow="tram rail_urban rail rail_electric rail_fast ship" speed="13.89" length="15.45" shape="360.00,449.50 354.83,435.17"/>
        <lane id=":1788098408_0_1" index="1" disallow="tram rail_urban rail rail_electric rail_fast ship" speed="13.89" length="15.45" shape="363.05,448.52 357.80,433.99"/>
        <lane id=":1788098408_0_2" index="2" disallow="tram rail_urban rail rail_electric rail_fast ship" speed="13.89" length="15.45" shape="366.09,447.54 360.77,432.80"/>
    </edge>
    <edge id=":1788098408_3" function="internal">
        <lane id=":1788098408_3_0" index="0" disallow="tram rail_urban rail rail_electric rail_fast ship" speed="6.34" length="9.04" shape="366.09,447.54 365.67,445.07 366.17,443.11 367.58,441.68 369.91,440.76"/>
    </edge>
    <edge id=":1788098408_4" function="internal">
        <lane id=":1788098408_4_0" index="0" disallow="tram rail_urban rail rail_electric rail_fast ship" speed="6.24" length="9.05" shape="351.34,442.01 353.67,441.05 355.04,439.59 355.42,437.63 354.83,435.17"/>
    </edge>
    <edge id=":1788098408_5" function="internal">
        <lane id=":1788098408_5_0" index="0" disallow="tram rail_urban rail rail_electric rail_fast ship" speed="7.78" length="14.72" shape="352.12,445.11 355.92,443.55 358.14,441.17 358.76,437.98 357.80,433.99"/>
    </edge>
    <edge id=":1788098408_6" function="internal">
        <lane id=":1788098408_6_0" index="0" disallow="tram rail_urban rail rail_electric rail_fast ship" speed="11.11" length="18.70" shape="352.12,445.11 357.32,443.29 360.63,441.33 363.96,439.40 369.17,437.64"/>
    </edge>
    <edge id=":1788098428_0" function="internal">
        <lane id=":1788098428_0_0" index="0" disallow="tram rail_urban rail rail_electric rail_fast ship" speed="6.69" length="9.41" shape="465.17,494.31 462.88,495.49 461.50,497.12 461.01,499.19 461.44,501.72"/>
    </edge>
    <edge id=":1788098428_1" function="internal">
        <lane id=":1788098428_1_0" index="0" disallow="tram rail_urban rail rail_electric rail_fast ship" speed="9.72" length="17.84" shape="465.17,494.31 448.30,500.10"/>
    </edge>
    <edge id=":1788098428_2" function="internal">
        <lane id=":1788098428_2_0" index="0" disallow="tram rail_urban rail rail_electric rail_fast ship" speed="3.65" length="4.67" shape="465.17,494.31 463.78,493.95 463.14,493.33 463.25,492.44 464.12,491.29"/>
    </edge>
    <edge id=":1788098428_3" function="internal">
        <lane id=":1788098428_3_0" index="0" disallow="tram rail_urban rail rail_electric rail_fast ship" speed="6.40" length="9.04" shape="457.16,487.70 458.20,489.97 459.70,491.32 461.68,491.76 464.12,491.29"/>
    </edge>
    <edge id=":1788098428_4" function="internal">
        <lane id=":1788098428_4_0" index="0" disallow="tram rail_urban rail rail_electric rail_fast ship" speed="16.67" length="14.74" shape="457.16,487.70 461.44,501.72"/>
        <lane id=":1788098428_4_1" index="1" disallow="tram rail_urban rail rail_electric rail_fast ship" speed="16.67" length="14.74" shape="454.09,488.59 458.39,502.69"/>